src/main/resources/simple_network.uct
##C 2007.05.01
##N
##ZBE
BBE1AA11 BE1          0 2 400.00 0.00000 0.00000 0.00000 0.00000 9000.00 -9000.0 9000.00 -9000.0
BBE2AA11 BE2          0 2 400.00 0.00000 0.00000 0.00000 0.00000 9000.00 -9000.0 9000.00 -9000.0
BBE3AA11 BE3          0 2 400.00 0.00000 0.00000 0.00000 0.00000 9000.00 -9000.0 9000.00 -9000.0
##ZFR
FFR1AA11 FR1          0 2 400.00 0.00000 0.00000 1500.00 0.00000 9000.00 -9000.0 9000.00 -9000.0
FFR2AA11 FR2          0 2 400.00 0.00000 0.00000 0.00000 0.00000 9000.00 -9000.0 9000.00 -9000.0
FFR3AA11 FR3          0 2 400.00 0.00000 0.00000 0.00000 0.00000 9000.00 -9000.0 9000.00 -9000.0
##ZNL
NNL1AA11 NL1          0 2 400.00 0000.00 0.00000 -1500.0 0.00000 9000.00 -9000.0 9000.00 -9000.0
NNL2AA11 NL2          0 2 400.00 0.00000 0.00000 0.00000 0.00000 9000.00 -9000.0 9000.00 -9000.0
NNL3AA11 NL3          0 2 400.00 0.00000 0.00000 0.00000 0.00000 9000.00 -9000.0 9000.00 -9000.0
##L
BBE1AA11 BBE2AA11 1 0 0.0000 10.000 0.000000   5000
BBE1AA11 BBE3AA11 1 0 0.0000 10.000 0.000000   5000
BBE2AA11 BBE3AA11 1 0 0.0000 10.000 0.000000   5000
FFR1AA11 FFR2AA11 1 0 0.0000 10.000 0.000000   5000
FFR1AA11 FFR3AA11 1 0 0.0000 10.000 0.000000   5000
FFR2AA11 FFR3AA11 1 0 0.0000 10.000 0.000000   1734
NNL1AA11 NNL2AA11 1 0 0.0000 10.000 0.000000   5000
NNL1AA11 NNL3AA11 1 0 0.0000 10.000 0.000000   5000
NNL2AA11 NNL3AA11 1 0 0.0000 10.000 0.000000   5000
FFR2AA11 NNL3AA11 1 0 0.0000 20.000 0.000000   5000
NNL2AA11 BBE3AA11 1 0 0.0000 10.000 0.000000   722
NNL2AA11 BBE3AA11 2 8 0.0000 10.000 0.000000   722
NNL2AA11 BBE3AA11 3 8 0.0000 10.000 0.000000   722
BBE2AA11 FFR3AA11 1 0 0.0000 10.000 0.000000   5000